*EXP.DETAILS: FLHO0602MZ FL Homestead 2006 434 lines
*GENERAL
@PEOPLE
JIM HOLLAND; ED BUCKLER; AND MANY OTHERS
@ADDRESS
NORTH CAROLINA
@SITE
SIX SITES AS TREATMENTS
@ PAREA  PRNO  PLEN  PLDR  PLSP  PLAY HAREA  HRNO  HLEN  HARM.........
    -99   -99   -99   -99   -99   -99   -99   -99   -99   -99
@NOTES
These data courtesy of Jim Holland, Ed Buckler and colleagues. 
Do not use w/o consulting.This file prepared by Jeff White for iPlant activities in G2P project.
This file is used as the core file for all lines.

*TREATMENTS                        -------------FACTOR LEVELS------------
@N R O C TNAME.................... CU FL SA IC MP MI MF MR MC MT ME MH SM
0011 1 0 iPlant 001               001  9  0  0  9  0  9  0  0  0  0  0  3
0021 1 0 iPlant 002               002  9  0  0  9  0  9  0  0  0  0  0  3
0031 1 0 iPlant 003               003  9  0  0  9  0  9  0  0  0  0  0  3
0041 1 0 iPlant 004               004  9  0  0  9  0  9  0  0  0  0  0  3
0051 1 0 iPlant 005               005  9  0  0  9  0  9  0  0  0  0  0  3
0061 1 0 iPlant 006               006  9  0  0  9  0  9  0  0  0  0  0  3
0071 1 0 iPlant 007               007  9  0  0  9  0  9  0  0  0  0  0  3
0081 1 0 iPlant 008               008  9  0  0  9  0  9  0  0  0  0  0  3
0091 1 0 iPlant 009               009  9  0  0  9  0  9  0  0  0  0  0  3
0101 1 0 iPlant 010               010  9  0  0  9  0  9  0  0  0  0  0  3
0111 1 0 iPlant 011               011  9  0  0  9  0  9  0  0  0  0  0  3
0121 1 0 iPlant 012               012  9  0  0  9  0  9  0  0  0  0  0  3
0131 1 0 iPlant 013               013  9  0  0  9  0  9  0  0  0  0  0  3
0141 1 0 iPlant 014               014  9  0  0  9  0  9  0  0  0  0  0  3
0151 1 0 iPlant 015               015  9  0  0  9  0  9  0  0  0  0  0  3
0161 1 0 iPlant 016               016  9  0  0  9  0  9  0  0  0  0  0  3
0171 1 0 iPlant 017               017  9  0  0  9  0  9  0  0  0  0  0  3
0181 1 0 iPlant 018               018  9  0  0  9  0  9  0  0  0  0  0  3
0191 1 0 iPlant 019               019  9  0  0  9  0  9  0  0  0  0  0  3
0201 1 0 iPlant 020               020  9  0  0  9  0  9  0  0  0  0  0  3
0211 1 0 iPlant 021               021  9  0  0  9  0  9  0  0  0  0  0  3
0221 1 0 iPlant 022               022  9  0  0  9  0  9  0  0  0  0  0  3
0231 1 0 iPlant 023               023  9  0  0  9  0  9  0  0  0  0  0  3
0241 1 0 iPlant 024               024  9  0  0  9  0  9  0  0  0  0  0  3
0251 1 0 iPlant 025               025  9  0  0  9  0  9  0  0  0  0  0  3
0261 1 0 iPlant 026               026  9  0  0  9  0  9  0  0  0  0  0  3
0271 1 0 iPlant 027               027  9  0  0  9  0  9  0  0  0  0  0  3
0281 1 0 iPlant 028               028  9  0  0  9  0  9  0  0  0  0  0  3
0291 1 0 iPlant 029               029  9  0  0  9  0  9  0  0  0  0  0  3
0301 1 0 iPlant 030               030  9  0  0  9  0  9  0  0  0  0  0  3
0311 1 0 iPlant 031               031  9  0  0  9  0  9  0  0  0  0  0  3
0321 1 0 iPlant 032               032  9  0  0  9  0  9  0  0  0  0  0  3
0331 1 0 iPlant 033               033  9  0  0  9  0  9  0  0  0  0  0  3
0341 1 0 iPlant 034               034  9  0  0  9  0  9  0  0  0  0  0  3
0351 1 0 iPlant 035               035  9  0  0  9  0  9  0  0  0  0  0  3
0361 1 0 iPlant 036               036  9  0  0  9  0  9  0  0  0  0  0  3
0371 1 0 iPlant 037               037  9  0  0  9  0  9  0  0  0  0  0  3
0381 1 0 iPlant 038               038  9  0  0  9  0  9  0  0  0  0  0  3
0391 1 0 iPlant 039               039  9  0  0  9  0  9  0  0  0  0  0  3
0401 1 0 iPlant 040               040  9  0  0  9  0  9  0  0  0  0  0  3
0411 1 0 iPlant 041               041  9  0  0  9  0  9  0  0  0  0  0  3
0421 1 0 iPlant 042               042  9  0  0  9  0  9  0  0  0  0  0  3
0431 1 0 iPlant 043               043  9  0  0  9  0  9  0  0  0  0  0  3
0441 1 0 iPlant 044               044  9  0  0  9  0  9  0  0  0  0  0  3
0451 1 0 iPlant 045               045  9  0  0  9  0  9  0  0  0  0  0  3
0461 1 0 iPlant 046               046  9  0  0  9  0  9  0  0  0  0  0  3
0471 1 0 iPlant 047               047  9  0  0  9  0  9  0  0  0  0  0  3
0481 1 0 iPlant 048               048  9  0  0  9  0  9  0  0  0  0  0  3
0491 1 0 iPlant 049               049  9  0  0  9  0  9  0  0  0  0  0  3
0501 1 0 iPlant 050               050  9  0  0  9  0  9  0  0  0  0  0  3
0511 1 0 iPlant 051               051  9  0  0  9  0  9  0  0  0  0  0  3
0521 1 0 iPlant 052               052  9  0  0  9  0  9  0  0  0  0  0  3
0531 1 0 iPlant 053               053  9  0  0  9  0  9  0  0  0  0  0  3
0541 1 0 iPlant 054               054  9  0  0  9  0  9  0  0  0  0  0  3
0551 1 0 iPlant 055               055  9  0  0  9  0  9  0  0  0  0  0  3
0561 1 0 iPlant 056               056  9  0  0  9  0  9  0  0  0  0  0  3
0571 1 0 iPlant 057               057  9  0  0  9  0  9  0  0  0  0  0  3
0581 1 0 iPlant 058               058  9  0  0  9  0  9  0  0  0  0  0  3
0591 1 0 iPlant 059               059  9  0  0  9  0  9  0  0  0  0  0  3
0601 1 0 iPlant 060               060  9  0  0  9  0  9  0  0  0  0  0  3
0611 1 0 iPlant 061               061  9  0  0  9  0  9  0  0  0  0  0  3
0621 1 0 iPlant 062               062  9  0  0  9  0  9  0  0  0  0  0  3
0631 1 0 iPlant 063               063  9  0  0  9  0  9  0  0  0  0  0  3
0641 1 0 iPlant 064               064  9  0  0  9  0  9  0  0  0  0  0  3
0651 1 0 iPlant 065               065  9  0  0  9  0  9  0  0  0  0  0  3
0661 1 0 iPlant 066               066  9  0  0  9  0  9  0  0  0  0  0  3
0671 1 0 iPlant 067               067  9  0  0  9  0  9  0  0  0  0  0  3
0681 1 0 iPlant 068               068  9  0  0  9  0  9  0  0  0  0  0  3
0691 1 0 iPlant 069               069  9  0  0  9  0  9  0  0  0  0  0  3
0701 1 0 iPlant 070               070  9  0  0  9  0  9  0  0  0  0  0  3
0711 1 0 iPlant 071               071  9  0  0  9  0  9  0  0  0  0  0  3
0721 1 0 iPlant 072               072  9  0  0  9  0  9  0  0  0  0  0  3
0731 1 0 iPlant 073               073  9  0  0  9  0  9  0  0  0  0  0  3
0741 1 0 iPlant 074               074  9  0  0  9  0  9  0  0  0  0  0  3
0751 1 0 iPlant 075               075  9  0  0  9  0  9  0  0  0  0  0  3
0761 1 0 iPlant 076               076  9  0  0  9  0  9  0  0  0  0  0  3
0771 1 0 iPlant 077               077  9  0  0  9  0  9  0  0  0  0  0  3
0781 1 0 iPlant 078               078  9  0  0  9  0  9  0  0  0  0  0  3
0791 1 0 iPlant 079               079  9  0  0  9  0  9  0  0  0  0  0  3
0801 1 0 iPlant 080               080  9  0  0  9  0  9  0  0  0  0  0  3
0811 1 0 iPlant 081               081  9  0  0  9  0  9  0  0  0  0  0  3
0821 1 0 iPlant 082               082  9  0  0  9  0  9  0  0  0  0  0  3
0831 1 0 iPlant 083               083  9  0  0  9  0  9  0  0  0  0  0  3
0841 1 0 iPlant 084               084  9  0  0  9  0  9  0  0  0  0  0  3
0851 1 0 iPlant 085               085  9  0  0  9  0  9  0  0  0  0  0  3
0861 1 0 iPlant 086               086  9  0  0  9  0  9  0  0  0  0  0  3
0871 1 0 iPlant 087               087  9  0  0  9  0  9  0  0  0  0  0  3
0881 1 0 iPlant 088               088  9  0  0  9  0  9  0  0  0  0  0  3
0891 1 0 iPlant 089               089  9  0  0  9  0  9  0  0  0  0  0  3
0901 1 0 iPlant 090               090  9  0  0  9  0  9  0  0  0  0  0  3
0911 1 0 iPlant 091               091  9  0  0  9  0  9  0  0  0  0  0  3
0921 1 0 iPlant 092               092  9  0  0  9  0  9  0  0  0  0  0  3
0931 1 0 iPlant 093               093  9  0  0  9  0  9  0  0  0  0  0  3
0941 1 0 iPlant 094               094  9  0  0  9  0  9  0  0  0  0  0  3
0951 1 0 iPlant 095               095  9  0  0  9  0  9  0  0  0  0  0  3
0961 1 0 iPlant 096               096  9  0  0  9  0  9  0  0  0  0  0  3
0971 1 0 iPlant 097               097  9  0  0  9  0  9  0  0  0  0  0  3
0981 1 0 iPlant 098               098  9  0  0  9  0  9  0  0  0  0  0  3
0991 1 0 iPlant 099               099  9  0  0  9  0  9  0  0  0  0  0  3
1001 1 0 iPlant 100               100  9  0  0  9  0  9  0  0  0  0  0  3
1011 1 0 iPlant 101               101  9  0  0  9  0  9  0  0  0  0  0  3
1021 1 0 iPlant 102               102  9  0  0  9  0  9  0  0  0  0  0  3
1031 1 0 iPlant 103               103  9  0  0  9  0  9  0  0  0  0  0  3
1041 1 0 iPlant 104               104  9  0  0  9  0  9  0  0  0  0  0  3
1051 1 0 iPlant 105               105  9  0  0  9  0  9  0  0  0  0  0  3
1061 1 0 iPlant 106               106  9  0  0  9  0  9  0  0  0  0  0  3
1071 1 0 iPlant 107               107  9  0  0  9  0  9  0  0  0  0  0  3
1081 1 0 iPlant 108               108  9  0  0  9  0  9  0  0  0  0  0  3
1091 1 0 iPlant 109               109  9  0  0  9  0  9  0  0  0  0  0  3
1101 1 0 iPlant 110               110  9  0  0  9  0  9  0  0  0  0  0  3
1111 1 0 iPlant 111               111  9  0  0  9  0  9  0  0  0  0  0  3
1121 1 0 iPlant 112               112  9  0  0  9  0  9  0  0  0  0  0  3
1131 1 0 iPlant 113               113  9  0  0  9  0  9  0  0  0  0  0  3
1141 1 0 iPlant 114               114  9  0  0  9  0  9  0  0  0  0  0  3
1151 1 0 iPlant 115               115  9  0  0  9  0  9  0  0  0  0  0  3
1161 1 0 iPlant 116               116  9  0  0  9  0  9  0  0  0  0  0  3
1171 1 0 iPlant 117               117  9  0  0  9  0  9  0  0  0  0  0  3
1181 1 0 iPlant 118               118  9  0  0  9  0  9  0  0  0  0  0  3
1191 1 0 iPlant 119               119  9  0  0  9  0  9  0  0  0  0  0  3
1201 1 0 iPlant 120               120  9  0  0  9  0  9  0  0  0  0  0  3
1211 1 0 iPlant 121               121  9  0  0  9  0  9  0  0  0  0  0  3
1221 1 0 iPlant 122               122  9  0  0  9  0  9  0  0  0  0  0  3
1231 1 0 iPlant 123               123  9  0  0  9  0  9  0  0  0  0  0  3
1241 1 0 iPlant 124               124  9  0  0  9  0  9  0  0  0  0  0  3
1251 1 0 iPlant 125               125  9  0  0  9  0  9  0  0  0  0  0  3
1261 1 0 iPlant 126               126  9  0  0  9  0  9  0  0  0  0  0  3
1271 1 0 iPlant 127               127  9  0  0  9  0  9  0  0  0  0  0  3
1281 1 0 iPlant 128               128  9  0  0  9  0  9  0  0  0  0  0  3
1291 1 0 iPlant 129               129  9  0  0  9  0  9  0  0  0  0  0  3
1301 1 0 iPlant 130               130  9  0  0  9  0  9  0  0  0  0  0  3
1311 1 0 iPlant 131               131  9  0  0  9  0  9  0  0  0  0  0  3
1321 1 0 iPlant 132               132  9  0  0  9  0  9  0  0  0  0  0  3
1331 1 0 iPlant 133               133  9  0  0  9  0  9  0  0  0  0  0  3
1341 1 0 iPlant 134               134  9  0  0  9  0  9  0  0  0  0  0  3
1351 1 0 iPlant 135               135  9  0  0  9  0  9  0  0  0  0  0  3
1361 1 0 iPlant 136               136  9  0  0  9  0  9  0  0  0  0  0  3
1371 1 0 iPlant 137               137  9  0  0  9  0  9  0  0  0  0  0  3
1381 1 0 iPlant 138               138  9  0  0  9  0  9  0  0  0  0  0  3
1391 1 0 iPlant 139               139  9  0  0  9  0  9  0  0  0  0  0  3
1401 1 0 iPlant 140               140  9  0  0  9  0  9  0  0  0  0  0  3
1411 1 0 iPlant 141               141  9  0  0  9  0  9  0  0  0  0  0  3
1421 1 0 iPlant 142               142  9  0  0  9  0  9  0  0  0  0  0  3
1431 1 0 iPlant 143               143  9  0  0  9  0  9  0  0  0  0  0  3
1441 1 0 iPlant 144               144  9  0  0  9  0  9  0  0  0  0  0  3
1451 1 0 iPlant 145               145  9  0  0  9  0  9  0  0  0  0  0  3
1461 1 0 iPlant 146               146  9  0  0  9  0  9  0  0  0  0  0  3
1471 1 0 iPlant 147               147  9  0  0  9  0  9  0  0  0  0  0  3
1481 1 0 iPlant 148               148  9  0  0  9  0  9  0  0  0  0  0  3
1491 1 0 iPlant 149               149  9  0  0  9  0  9  0  0  0  0  0  3
1501 1 0 iPlant 150               150  9  0  0  9  0  9  0  0  0  0  0  3
1511 1 0 iPlant 151               151  9  0  0  9  0  9  0  0  0  0  0  3
1521 1 0 iPlant 152               152  9  0  0  9  0  9  0  0  0  0  0  3
1531 1 0 iPlant 153               153  9  0  0  9  0  9  0  0  0  0  0  3
1541 1 0 iPlant 154               154  9  0  0  9  0  9  0  0  0  0  0  3
1551 1 0 iPlant 155               155  9  0  0  9  0  9  0  0  0  0  0  3
1561 1 0 iPlant 156               156  9  0  0  9  0  9  0  0  0  0  0  3
1571 1 0 iPlant 157               157  9  0  0  9  0  9  0  0  0  0  0  3
1581 1 0 iPlant 158               158  9  0  0  9  0  9  0  0  0  0  0  3
1591 1 0 iPlant 159               159  9  0  0  9  0  9  0  0  0  0  0  3
1601 1 0 iPlant 160               160  9  0  0  9  0  9  0  0  0  0  0  3
1611 1 0 iPlant 161               161  9  0  0  9  0  9  0  0  0  0  0  3
1621 1 0 iPlant 162               162  9  0  0  9  0  9  0  0  0  0  0  3
1631 1 0 iPlant 163               163  9  0  0  9  0  9  0  0  0  0  0  3
1641 1 0 iPlant 164               164  9  0  0  9  0  9  0  0  0  0  0  3
1651 1 0 iPlant 165               165  9  0  0  9  0  9  0  0  0  0  0  3
1661 1 0 iPlant 166               166  9  0  0  9  0  9  0  0  0  0  0  3
1671 1 0 iPlant 167               167  9  0  0  9  0  9  0  0  0  0  0  3
1681 1 0 iPlant 168               168  9  0  0  9  0  9  0  0  0  0  0  3
1691 1 0 iPlant 169               169  9  0  0  9  0  9  0  0  0  0  0  3
1701 1 0 iPlant 170               170  9  0  0  9  0  9  0  0  0  0  0  3
1711 1 0 iPlant 171               171  9  0  0  9  0  9  0  0  0  0  0  3
1721 1 0 iPlant 172               172  9  0  0  9  0  9  0  0  0  0  0  3
1731 1 0 iPlant 173               173  9  0  0  9  0  9  0  0  0  0  0  3
1741 1 0 iPlant 174               174  9  0  0  9  0  9  0  0  0  0  0  3
1751 1 0 iPlant 175               175  9  0  0  9  0  9  0  0  0  0  0  3
1761 1 0 iPlant 176               176  9  0  0  9  0  9  0  0  0  0  0  3
1771 1 0 iPlant 177               177  9  0  0  9  0  9  0  0  0  0  0  3
1781 1 0 iPlant 178               178  9  0  0  9  0  9  0  0  0  0  0  3
1791 1 0 iPlant 179               179  9  0  0  9  0  9  0  0  0  0  0  3
1801 1 0 iPlant 180               180  9  0  0  9  0  9  0  0  0  0  0  3
1811 1 0 iPlant 181               181  9  0  0  9  0  9  0  0  0  0  0  3
1821 1 0 iPlant 182               182  9  0  0  9  0  9  0  0  0  0  0  3
1831 1 0 iPlant 183               183  9  0  0  9  0  9  0  0  0  0  0  3
1841 1 0 iPlant 184               184  9  0  0  9  0  9  0  0  0  0  0  3
1851 1 0 iPlant 185               185  9  0  0  9  0  9  0  0  0  0  0  3
1861 1 0 iPlant 186               186  9  0  0  9  0  9  0  0  0  0  0  3
1871 1 0 iPlant 187               187  9  0  0  9  0  9  0  0  0  0  0  3
1881 1 0 iPlant 188               188  9  0  0  9  0  9  0  0  0  0  0  3
1891 1 0 iPlant 189               189  9  0  0  9  0  9  0  0  0  0  0  3
1901 1 0 iPlant 190               190  9  0  0  9  0  9  0  0  0  0  0  3
1911 1 0 iPlant 191               191  9  0  0  9  0  9  0  0  0  0  0  3
1921 1 0 iPlant 192               192  9  0  0  9  0  9  0  0  0  0  0  3
1931 1 0 iPlant 193               193  9  0  0  9  0  9  0  0  0  0  0  3
1941 1 0 iPlant 194               194  9  0  0  9  0  9  0  0  0  0  0  3
1951 1 0 iPlant 195               195  9  0  0  9  0  9  0  0  0  0  0  3
1961 1 0 iPlant 196               196  9  0  0  9  0  9  0  0  0  0  0  3
1971 1 0 iPlant 197               197  9  0  0  9  0  9  0  0  0  0  0  3
1981 1 0 iPlant 198               198  9  0  0  9  0  9  0  0  0  0  0  3
1991 1 0 iPlant 199               199  9  0  0  9  0  9  0  0  0  0  0  3
2001 1 0 iPlant 200               200  9  0  0  9  0  9  0  0  0  0  0  3
2011 1 0 iPlant 201               201  9  0  0  9  0  9  0  0  0  0  0  3
2021 1 0 iPlant 202               202  9  0  0  9  0  9  0  0  0  0  0  3
2031 1 0 iPlant 203               203  9  0  0  9  0  9  0  0  0  0  0  3
2041 1 0 iPlant 204               204  9  0  0  9  0  9  0  0  0  0  0  3
2051 1 0 iPlant 205               205  9  0  0  9  0  9  0  0  0  0  0  3
2061 1 0 iPlant 206               206  9  0  0  9  0  9  0  0  0  0  0  3
2071 1 0 iPlant 207               207  9  0  0  9  0  9  0  0  0  0  0  3
2081 1 0 iPlant 208               208  9  0  0  9  0  9  0  0  0  0  0  3
2091 1 0 iPlant 209               209  9  0  0  9  0  9  0  0  0  0  0  3
2101 1 0 iPlant 210               210  9  0  0  9  0  9  0  0  0  0  0  3
2111 1 0 iPlant 211               211  9  0  0  9  0  9  0  0  0  0  0  3
2121 1 0 iPlant 212               212  9  0  0  9  0  9  0  0  0  0  0  3
2131 1 0 iPlant 213               213  9  0  0  9  0  9  0  0  0  0  0  3
2141 1 0 iPlant 214               214  9  0  0  9  0  9  0  0  0  0  0  3
2151 1 0 iPlant 215               215  9  0  0  9  0  9  0  0  0  0  0  3
2161 1 0 iPlant 216               216  9  0  0  9  0  9  0  0  0  0  0  3
2171 1 0 iPlant 217               217  9  0  0  9  0  9  0  0  0  0  0  3
2181 1 0 iPlant 218               218  9  0  0  9  0  9  0  0  0  0  0  3
2191 1 0 iPlant 219               219  9  0  0  9  0  9  0  0  0  0  0  3
2201 1 0 iPlant 220               220  9  0  0  9  0  9  0  0  0  0  0  3
2211 1 0 iPlant 221               221  9  0  0  9  0  9  0  0  0  0  0  3
2221 1 0 iPlant 222               222  9  0  0  9  0  9  0  0  0  0  0  3
2231 1 0 iPlant 223               223  9  0  0  9  0  9  0  0  0  0  0  3
2241 1 0 iPlant 224               224  9  0  0  9  0  9  0  0  0  0  0  3
2251 1 0 iPlant 225               225  9  0  0  9  0  9  0  0  0  0  0  3
2261 1 0 iPlant 226               226  9  0  0  9  0  9  0  0  0  0  0  3
2271 1 0 iPlant 227               227  9  0  0  9  0  9  0  0  0  0  0  3
2281 1 0 iPlant 228               228  9  0  0  9  0  9  0  0  0  0  0  3
2291 1 0 iPlant 229               229  9  0  0  9  0  9  0  0  0  0  0  3
2301 1 0 iPlant 230               230  9  0  0  9  0  9  0  0  0  0  0  3
2311 1 0 iPlant 231               231  9  0  0  9  0  9  0  0  0  0  0  3
2321 1 0 iPlant 232               232  9  0  0  9  0  9  0  0  0  0  0  3
2331 1 0 iPlant 233               233  9  0  0  9  0  9  0  0  0  0  0  3
2341 1 0 iPlant 234               234  9  0  0  9  0  9  0  0  0  0  0  3
2351 1 0 iPlant 235               235  9  0  0  9  0  9  0  0  0  0  0  3
2361 1 0 iPlant 236               236  9  0  0  9  0  9  0  0  0  0  0  3
2371 1 0 iPlant 237               237  9  0  0  9  0  9  0  0  0  0  0  3
2381 1 0 iPlant 238               238  9  0  0  9  0  9  0  0  0  0  0  3
2391 1 0 iPlant 239               239  9  0  0  9  0  9  0  0  0  0  0  3
2401 1 0 iPlant 240               240  9  0  0  9  0  9  0  0  0  0  0  3
2411 1 0 iPlant 241               241  9  0  0  9  0  9  0  0  0  0  0  3
2421 1 0 iPlant 242               242  9  0  0  9  0  9  0  0  0  0  0  3
2431 1 0 iPlant 243               243  9  0  0  9  0  9  0  0  0  0  0  3
2441 1 0 iPlant 244               244  9  0  0  9  0  9  0  0  0  0  0  3
2451 1 0 iPlant 245               245  9  0  0  9  0  9  0  0  0  0  0  3
2461 1 0 iPlant 246               246  9  0  0  9  0  9  0  0  0  0  0  3
2471 1 0 iPlant 247               247  9  0  0  9  0  9  0  0  0  0  0  3
2481 1 0 iPlant 248               248  9  0  0  9  0  9  0  0  0  0  0  3
2491 1 0 iPlant 249               249  9  0  0  9  0  9  0  0  0  0  0  3
2501 1 0 iPlant 250               250  9  0  0  9  0  9  0  0  0  0  0  3
2511 1 0 iPlant 251               251  9  0  0  9  0  9  0  0  0  0  0  3
2521 1 0 iPlant 252               252  9  0  0  9  0  9  0  0  0  0  0  3
2531 1 0 iPlant 253               253  9  0  0  9  0  9  0  0  0  0  0  3
2541 1 0 iPlant 254               254  9  0  0  9  0  9  0  0  0  0  0  3
2551 1 0 iPlant 255               255  9  0  0  9  0  9  0  0  0  0  0  3
2561 1 0 iPlant 256               256  9  0  0  9  0  9  0  0  0  0  0  3
2571 1 0 iPlant 257               257  9  0  0  9  0  9  0  0  0  0  0  3
2581 1 0 iPlant 258               258  9  0  0  9  0  9  0  0  0  0  0  3
2591 1 0 iPlant 259               259  9  0  0  9  0  9  0  0  0  0  0  3
2601 1 0 iPlant 260               260  9  0  0  9  0  9  0  0  0  0  0  3
2611 1 0 iPlant 261               261  9  0  0  9  0  9  0  0  0  0  0  3
2621 1 0 iPlant 262               262  9  0  0  9  0  9  0  0  0  0  0  3
2631 1 0 iPlant 263               263  9  0  0  9  0  9  0  0  0  0  0  3
2641 1 0 iPlant 264               264  9  0  0  9  0  9  0  0  0  0  0  3
2651 1 0 iPlant 265               265  9  0  0  9  0  9  0  0  0  0  0  3
2661 1 0 iPlant 266               266  9  0  0  9  0  9  0  0  0  0  0  3
2671 1 0 iPlant 267               267  9  0  0  9  0  9  0  0  0  0  0  3
2681 1 0 iPlant 268               268  9  0  0  9  0  9  0  0  0  0  0  3
2691 1 0 iPlant 269               269  9  0  0  9  0  9  0  0  0  0  0  3
2701 1 0 iPlant 270               270  9  0  0  9  0  9  0  0  0  0  0  3
2711 1 0 iPlant 271               271  9  0  0  9  0  9  0  0  0  0  0  3
2721 1 0 iPlant 272               272  9  0  0  9  0  9  0  0  0  0  0  3
2731 1 0 iPlant 273               273  9  0  0  9  0  9  0  0  0  0  0  3
2741 1 0 iPlant 274               274  9  0  0  9  0  9  0  0  0  0  0  3
2751 1 0 iPlant 275               275  9  0  0  9  0  9  0  0  0  0  0  3
2761 1 0 iPlant 276               276  9  0  0  9  0  9  0  0  0  0  0  3
2771 1 0 iPlant 277               277  9  0  0  9  0  9  0  0  0  0  0  3
2781 1 0 iPlant 278               278  9  0  0  9  0  9  0  0  0  0  0  3
2791 1 0 iPlant 279               279  9  0  0  9  0  9  0  0  0  0  0  3
2801 1 0 iPlant 280               280  9  0  0  9  0  9  0  0  0  0  0  3
2811 1 0 iPlant 281               281  9  0  0  9  0  9  0  0  0  0  0  3
2821 1 0 iPlant 282               282  9  0  0  9  0  9  0  0  0  0  0  3
2831 1 0 iPlant 283               283  9  0  0  9  0  9  0  0  0  0  0  3
2841 1 0 iPlant 284               284  9  0  0  9  0  9  0  0  0  0  0  3
2851 1 0 iPlant 285               285  9  0  0  9  0  9  0  0  0  0  0  3
2861 1 0 iPlant 286               286  9  0  0  9  0  9  0  0  0  0  0  3
2871 1 0 iPlant 287               287  9  0  0  9  0  9  0  0  0  0  0  3
2881 1 0 iPlant 288               288  9  0  0  9  0  9  0  0  0  0  0  3
2891 1 0 iPlant 289               289  9  0  0  9  0  9  0  0  0  0  0  3
2901 1 0 iPlant 290               290  9  0  0  9  0  9  0  0  0  0  0  3
2911 1 0 iPlant 291               291  9  0  0  9  0  9  0  0  0  0  0  3
2921 1 0 iPlant 292               292  9  0  0  9  0  9  0  0  0  0  0  3
2931 1 0 iPlant 293               293  9  0  0  9  0  9  0  0  0  0  0  3
2941 1 0 iPlant 294               294  9  0  0  9  0  9  0  0  0  0  0  3
2951 1 0 iPlant 295               295  9  0  0  9  0  9  0  0  0  0  0  3
2961 1 0 iPlant 296               296  9  0  0  9  0  9  0  0  0  0  0  3
2971 1 0 iPlant 297               297  9  0  0  9  0  9  0  0  0  0  0  3
2981 1 0 iPlant 298               298  9  0  0  9  0  9  0  0  0  0  0  3
2991 1 0 iPlant 299               299  9  0  0  9  0  9  0  0  0  0  0  3
3001 1 0 iPlant 300               300  9  0  0  9  0  9  0  0  0  0  0  3
3011 1 0 iPlant 301               301  9  0  0  9  0  9  0  0  0  0  0  3
3021 1 0 iPlant 302               302  9  0  0  9  0  9  0  0  0  0  0  3
3031 1 0 iPlant 303               303  9  0  0  9  0  9  0  0  0  0  0  3
3041 1 0 iPlant 304               304  9  0  0  9  0  9  0  0  0  0  0  3
3051 1 0 iPlant 305               305  9  0  0  9  0  9  0  0  0  0  0  3
3061 1 0 iPlant 306               306  9  0  0  9  0  9  0  0  0  0  0  3
3071 1 0 iPlant 307               307  9  0  0  9  0  9  0  0  0  0  0  3
3081 1 0 iPlant 308               308  9  0  0  9  0  9  0  0  0  0  0  3
3091 1 0 iPlant 309               309  9  0  0  9  0  9  0  0  0  0  0  3
3101 1 0 iPlant 310               310  9  0  0  9  0  9  0  0  0  0  0  3
3111 1 0 iPlant 311               311  9  0  0  9  0  9  0  0  0  0  0  3
3121 1 0 iPlant 312               312  9  0  0  9  0  9  0  0  0  0  0  3
3131 1 0 iPlant 313               313  9  0  0  9  0  9  0  0  0  0  0  3
3141 1 0 iPlant 314               314  9  0  0  9  0  9  0  0  0  0  0  3
3151 1 0 iPlant 315               315  9  0  0  9  0  9  0  0  0  0  0  3
3161 1 0 iPlant 316               316  9  0  0  9  0  9  0  0  0  0  0  3
3171 1 0 iPlant 317               317  9  0  0  9  0  9  0  0  0  0  0  3
3181 1 0 iPlant 318               318  9  0  0  9  0  9  0  0  0  0  0  3
3191 1 0 iPlant 319               319  9  0  0  9  0  9  0  0  0  0  0  3
3201 1 0 iPlant 320               320  9  0  0  9  0  9  0  0  0  0  0  3
3211 1 0 iPlant 321               321  9  0  0  9  0  9  0  0  0  0  0  3
3221 1 0 iPlant 322               322  9  0  0  9  0  9  0  0  0  0  0  3
3231 1 0 iPlant 323               323  9  0  0  9  0  9  0  0  0  0  0  3
3241 1 0 iPlant 324               324  9  0  0  9  0  9  0  0  0  0  0  3
3251 1 0 iPlant 325               325  9  0  0  9  0  9  0  0  0  0  0  3
3261 1 0 iPlant 326               326  9  0  0  9  0  9  0  0  0  0  0  3
3271 1 0 iPlant 327               327  9  0  0  9  0  9  0  0  0  0  0  3
3281 1 0 iPlant 328               328  9  0  0  9  0  9  0  0  0  0  0  3
3291 1 0 iPlant 329               329  9  0  0  9  0  9  0  0  0  0  0  3
3301 1 0 iPlant 330               330  9  0  0  9  0  9  0  0  0  0  0  3
3311 1 0 iPlant 331               331  9  0  0  9  0  9  0  0  0  0  0  3
3321 1 0 iPlant 332               332  9  0  0  9  0  9  0  0  0  0  0  3
3331 1 0 iPlant 333               333  9  0  0  9  0  9  0  0  0  0  0  3
3341 1 0 iPlant 334               334  9  0  0  9  0  9  0  0  0  0  0  3
3351 1 0 iPlant 335               335  9  0  0  9  0  9  0  0  0  0  0  3
3361 1 0 iPlant 336               336  9  0  0  9  0  9  0  0  0  0  0  3
3371 1 0 iPlant 337               337  9  0  0  9  0  9  0  0  0  0  0  3
3381 1 0 iPlant 338               338  9  0  0  9  0  9  0  0  0  0  0  3
3391 1 0 iPlant 339               339  9  0  0  9  0  9  0  0  0  0  0  3
3401 1 0 iPlant 340               340  9  0  0  9  0  9  0  0  0  0  0  3
3411 1 0 iPlant 341               341  9  0  0  9  0  9  0  0  0  0  0  3
3421 1 0 iPlant 342               342  9  0  0  9  0  9  0  0  0  0  0  3
3431 1 0 iPlant 343               343  9  0  0  9  0  9  0  0  0  0  0  3
3441 1 0 iPlant 344               344  9  0  0  9  0  9  0  0  0  0  0  3
3451 1 0 iPlant 345               345  9  0  0  9  0  9  0  0  0  0  0  3
3461 1 0 iPlant 346               346  9  0  0  9  0  9  0  0  0  0  0  3
3471 1 0 iPlant 347               347  9  0  0  9  0  9  0  0  0  0  0  3
3481 1 0 iPlant 348               348  9  0  0  9  0  9  0  0  0  0  0  3
3491 1 0 iPlant 349               349  9  0  0  9  0  9  0  0  0  0  0  3
3501 1 0 iPlant 350               350  9  0  0  9  0  9  0  0  0  0  0  3
3511 1 0 iPlant 351               351  9  0  0  9  0  9  0  0  0  0  0  3
3521 1 0 iPlant 352               352  9  0  0  9  0  9  0  0  0  0  0  3
3531 1 0 iPlant 353               353  9  0  0  9  0  9  0  0  0  0  0  3
3541 1 0 iPlant 354               354  9  0  0  9  0  9  0  0  0  0  0  3
3551 1 0 iPlant 355               355  9  0  0  9  0  9  0  0  0  0  0  3
3561 1 0 iPlant 356               356  9  0  0  9  0  9  0  0  0  0  0  3
3571 1 0 iPlant 357               357  9  0  0  9  0  9  0  0  0  0  0  3
3581 1 0 iPlant 358               358  9  0  0  9  0  9  0  0  0  0  0  3
3591 1 0 iPlant 359               359  9  0  0  9  0  9  0  0  0  0  0  3
3601 1 0 iPlant 360               360  9  0  0  9  0  9  0  0  0  0  0  3
3611 1 0 iPlant 361               361  9  0  0  9  0  9  0  0  0  0  0  3
3621 1 0 iPlant 362               362  9  0  0  9  0  9  0  0  0  0  0  3
3631 1 0 iPlant 363               363  9  0  0  9  0  9  0  0  0  0  0  3
3641 1 0 iPlant 364               364  9  0  0  9  0  9  0  0  0  0  0  3
3651 1 0 iPlant 365               365  9  0  0  9  0  9  0  0  0  0  0  3
3661 1 0 iPlant 366               366  9  0  0  9  0  9  0  0  0  0  0  3
3671 1 0 iPlant 367               367  9  0  0  9  0  9  0  0  0  0  0  3
3681 1 0 iPlant 368               368  9  0  0  9  0  9  0  0  0  0  0  3
3691 1 0 iPlant 369               369  9  0  0  9  0  9  0  0  0  0  0  3
3701 1 0 iPlant 370               370  9  0  0  9  0  9  0  0  0  0  0  3
3711 1 0 iPlant 371               371  9  0  0  9  0  9  0  0  0  0  0  3
3721 1 0 iPlant 372               372  9  0  0  9  0  9  0  0  0  0  0  3
3731 1 0 iPlant 373               373  9  0  0  9  0  9  0  0  0  0  0  3
3741 1 0 iPlant 374               374  9  0  0  9  0  9  0  0  0  0  0  3
3751 1 0 iPlant 375               375  9  0  0  9  0  9  0  0  0  0  0  3
3761 1 0 iPlant 376               376  9  0  0  9  0  9  0  0  0  0  0  3
3771 1 0 iPlant 377               377  9  0  0  9  0  9  0  0  0  0  0  3
3781 1 0 iPlant 378               378  9  0  0  9  0  9  0  0  0  0  0  3
3791 1 0 iPlant 379               379  9  0  0  9  0  9  0  0  0  0  0  3
3801 1 0 iPlant 380               380  9  0  0  9  0  9  0  0  0  0  0  3
3811 1 0 iPlant 381               381  9  0  0  9  0  9  0  0  0  0  0  3
3821 1 0 iPlant 382               382  9  0  0  9  0  9  0  0  0  0  0  3
3831 1 0 iPlant 383               383  9  0  0  9  0  9  0  0  0  0  0  3
3841 1 0 iPlant 384               384  9  0  0  9  0  9  0  0  0  0  0  3
3851 1 0 iPlant 385               385  9  0  0  9  0  9  0  0  0  0  0  3
3861 1 0 iPlant 386               386  9  0  0  9  0  9  0  0  0  0  0  3
3871 1 0 iPlant 387               387  9  0  0  9  0  9  0  0  0  0  0  3
3881 1 0 iPlant 388               388  9  0  0  9  0  9  0  0  0  0  0  3
3891 1 0 iPlant 389               389  9  0  0  9  0  9  0  0  0  0  0  3
3901 1 0 iPlant 390               390  9  0  0  9  0  9  0  0  0  0  0  3